T1	Process 16 57	wetland-river interactions involving GIWs
T2	Material 87 108	wetland can discharge
T3	Material 185 226	volume of water (or water level elevation
T4	Material 233 237	wetl
T5	Process 356 371	wetland outflow
T6	Material 624 671	re hydraulically connected with adjacent rivers
T7	Process 673 698	wetland-river interaction
T8	Material 822 827	river
T9	Material 832 862	wetland water level elevations
T10	Material 878 922	properties of the connection between the two
T11	Process 1019 1033	WATFLOOD model
T12	Process 1058 1083	wetland-river interaction
T13	Process 1106 1169	principle of Dupuit-Forchheimer lateral/radial groundwater flow
T14	Process 1209 1222	riparian wetl
T15	Material 1257 1271	surface and/or
T16	Material 1284 1294	subsurface
T17	Material 1386 1404	wetland vegetation
T18	Material 1413 1428	subsurface soil
T19	Process 1439 1479	Darcy flow equation of the MODFLOW model
